
Note: Compatibility modes selected: hs a


Circuit: * simple rc low-pass filter

Doing analysis at TEMP = 27.000000 and TNOM = 27.000000

Using SPARSE 1.3 as Direct Linear Solver

No. of Data Rows : 1

Initial Transient Solution
--------------------------

Node                                   Voltage
----                                   -------
in                                           0
out                                          0
vin#branch                                   0


No. of Data Rows : 5209
ASCII raw file "rc_filter.raw"

Warning: command 'plot' is not available during batch simulation, ignored!
    You may use Gnuplot instead.

Doing analysis at TEMP = 27.000000 and TNOM = 27.000000

Using SPARSE 1.3 as Direct Linear Solver

No. of Data Rows : 1

Initial Transient Solution
--------------------------

Node                                   Voltage
----                                   -------
in                                           0
out                                          0
vin#branch                                   0


No. of Data Rows : 5209
	Node                                  Voltage
	----                                  -------
	----	-------
	out                              0.000000e+00
	in                               0.000000e+00

	Source	Current
	------	-------

	vin#branch                       0.000000e+00

 Capacitor models (Fixed capacitor)
      model                     C

        cap                     0
         cj                     0
       cjsw                     0
       defw                 1e-05
       defl                     0
     narrow                     0
      short                     0
        del                     0
        tc1                     0
        tc2                     0
         di                     0
      thick                     0
     bv_max                 1e+99

 Resistor models (Simple linear resistor)
      model                     R

        rsh                     0
     narrow                     0
      short                     0
        tc1                     0
        tc2                     0
        tce                     0
       defw                 1e-05
          l                 1e-05
         kf                     0
         af                     0
          r                     0
     bv_max                 1e+99
         lf                     1
         wf                     1
         ef                     1

 Capacitor: Fixed capacitor
     device                    c1
      model                     C
capacitance                 1e-09
      dtemp                     0
     bv_max                 1e+99
          i          -6.3697e-242
          p                    -0

 Resistor: Simple linear resistor
     device                    r1
      model                     R
 resistance                  1000
         ac                  1000
      dtemp                     0
     bv_max                 1e+99
      noisy                     1
          i          -6.3697e-242
          p                     0

 Vsource: Independent voltage source
     device                   vin
         dc                     0
      acmag                     0
      pulse                     0
                                1
                                0
                            1e-09
                            1e-09
                           0.0005
                            0.001
        sin                     0
                                1
                                0
                            1e-09
                            1e-09
                           0.0005
                            0.001
        exp                     0
                                1
                                0
                            1e-09
                            1e-09
                           0.0005
                            0.001
        pwl                     0
                                1
                                0
                            1e-09
                            1e-09
                           0.0005
                            0.001
       sffm                     0
                                1
                                0
                            1e-09
                            1e-09
                           0.0005
                            0.001
         am                     0
                                1
                                0
                            1e-09
                            1e-09
                           0.0005
                            0.001
    trnoise                     0
                                1
                                0
                            1e-09
                            1e-09
                           0.0005
                            0.001
   trrandom                     0
                                1
                                0
                            1e-09
                            1e-09
                           0.0005
                            0.001
    portnum                     0
         z0                     0
        pwr                     0
       freq                     0
      phase                     0
          i           6.3697e-242
          p                     0


Total analysis time (seconds) = 0.104524

Total elapsed time (seconds) = 0.111 

Total DRAM available = 15560.641 MB.
DRAM currently available =  148.055 MB.
Maximum ngspice program size =   26.332 MB.
Current ngspice program size =   14.391 MB.

Shared ngspice pages =   11.699 MB.
Text (code) pages =    5.875 MB.
Stack = 0 bytes.
Library pages =    2.633 MB.

